<?xml version="1.0" encoding="UTF-8"?>

<!-- generated on 2026-02-05 12:27:42 by Eclipse SUMO netedit Version 1.18.0
<configuration xmlns:xsi="http://www.w3.org/2001/XMLSchema-instance" xsi:noNamespaceSchemaLocation="http://sumo.dlr.de/xsd/neteditConfiguration.xsd">

    <input>
        <sumo-net-file value="junction.net.xml"/>
    </input>

    <output>
        <output-file value="junction.net.xml"/>
    </output>

    <processing>
        <geometry.min-radius.fix.railways value="false"/>
        <geometry.max-grade.fix value="false"/>
        <offset.disable-normalization value="true"/>
        <lefthand value="1"/>
    </processing>

    <junctions>
        <no-turnarounds value="true"/>
        <junctions.corner-detail value="5"/>
        <junctions.limit-turn-speed value="5.50"/>
        <rectangular-lane-cut value="0"/>
    </junctions>

    <pedestrian>
        <walkingareas value="0"/>
    </pedestrian>

</configuration>
-->

<net version="1.16" junctionCornerDetail="5" lefthand="true" limitTurnSpeed="5.50" xmlns:xsi="http://www.w3.org/2001/XMLSchema-instance" xsi:noNamespaceSchemaLocation="http://sumo.dlr.de/xsd/net_file.xsd">

    <location netOffset="0.00,0.00" convBoundary="-43.34,-14.84,121.62,120.76" origBoundary="-10000000000.00,-10000000000.00,10000000000.00,10000000000.00" projParameter="!"/>

    <edge id=":J0_0" function="internal">
        <lane id=":J0_0_0" index="0" speed="6.51" length="9.03" shape="36.05,49.81 35.70,52.26 34.65,54.01 32.90,55.06 30.45,55.40"/>
    </edge>
    <edge id=":J0_1" function="internal">
        <lane id=":J0_1_0" index="0" speed="13.89" length="14.40" shape="36.05,49.81 36.05,64.21"/>
    </edge>
    <edge id=":J0_2" function="internal">
        <lane id=":J0_2_0" index="0" speed="8.00" length="14.19" shape="36.05,49.81 36.60,53.66 38.25,56.41 41.00,58.06 44.85,58.61"/>
    </edge>
    <edge id=":J0_3" function="internal">
        <lane id=":J0_3_0" index="0" speed="6.51" length="9.03" shape="44.85,55.41 42.40,55.06 40.65,54.01 39.60,52.26 39.25,49.81"/>
    </edge>
    <edge id=":J0_4" function="internal">
        <lane id=":J0_4_0" index="0" speed="13.89" length="14.40" shape="44.85,55.41 30.45,55.40"/>
    </edge>
    <edge id=":J0_5" function="internal">
        <lane id=":J0_5_0" index="0" speed="8.00" length="14.19" shape="44.85,55.41 41.00,55.96 38.25,57.61 36.60,60.36 36.05,64.21"/>
    </edge>
    <edge id=":J0_6" function="internal">
        <lane id=":J0_6_0" index="0" speed="6.51" length="9.03" shape="39.25,64.21 39.60,61.76 40.65,60.01 42.40,58.96 44.85,58.61"/>
    </edge>
    <edge id=":J0_7" function="internal">
        <lane id=":J0_7_0" index="0" speed="13.89" length="14.40" shape="39.25,64.21 39.25,49.81"/>
    </edge>
    <edge id=":J0_8" function="internal">
        <lane id=":J0_8_0" index="0" speed="8.00" length="14.19" shape="39.25,64.21 38.70,60.36 37.05,57.61 34.30,55.96 30.45,55.40"/>
    </edge>
    <edge id=":J0_9" function="internal">
        <lane id=":J0_9_0" index="0" speed="6.51" length="9.04" shape="30.45,58.60 32.90,58.96 34.65,60.01 35.70,61.76 36.05,64.21"/>
    </edge>
    <edge id=":J0_10" function="internal">
        <lane id=":J0_10_0" index="0" speed="13.89" length="14.40" shape="30.45,58.60 44.85,58.61"/>
    </edge>
    <edge id=":J0_11" function="internal">
        <lane id=":J0_11_0" index="0" speed="8.00" length="14.20" shape="30.45,58.60 34.30,58.06 37.05,56.41 38.70,53.66 39.25,49.81"/>
    </edge>

    <edge id="-E0" from="J1" to="J0" priority="-1">
        <lane id="-E0_0" index="0" speed="13.89" length="76.77" shape="121.62,55.41 44.85,55.41"/>
    </edge>
    <edge id="-E3" from="J5" to="J0" priority="-1">
        <lane id="-E3_0" index="0" speed="13.89" length="73.79" shape="-43.34,58.55 30.45,58.60"/>
    </edge>
    <edge id="-E4" from="J6" to="J0" priority="-1">
        <lane id="-E4_0" index="0" speed="13.89" length="64.65" shape="36.03,-14.84 36.05,49.81"/>
    </edge>
    <edge id="-E5" from="J7" to="J0" priority="-1">
        <lane id="-E5_0" index="0" speed="13.89" length="56.55" shape="39.23,120.76 39.25,64.21"/>
    </edge>
    <edge id="E0" from="J0" to="J1" priority="-1">
        <lane id="E0_0" index="0" speed="13.89" length="76.77" shape="44.85,58.61 121.62,58.61"/>
    </edge>
    <edge id="E3" from="J0" to="J5" priority="-1">
        <lane id="E3_0" index="0" speed="13.89" length="73.79" shape="30.45,55.40 -43.34,55.35"/>
    </edge>
    <edge id="E4" from="J0" to="J6" priority="-1">
        <lane id="E4_0" index="0" speed="13.89" length="64.65" shape="39.25,49.81 39.23,-14.84"/>
    </edge>
    <edge id="E5" from="J0" to="J7" priority="-1">
        <lane id="E5_0" index="0" speed="13.89" length="56.55" shape="36.05,64.21 36.03,120.76"/>
    </edge>

    <tlLogic id="J0" type="static" programID="0" offset="0">
        <phase duration="1000" state="rrrrrrrrrrrr"/>
    </tlLogic>

    <junction id="J0" type="traffic_light" x="37.65" y="57.01" incLanes="-E4_0 -E0_0 -E5_0 -E3_0" intLanes=":J0_0_0 :J0_1_0 :J0_2_0 :J0_3_0 :J0_4_0 :J0_5_0 :J0_6_0 :J0_7_0 :J0_8_0 :J0_9_0 :J0_10_0 :J0_11_0" shape="34.45,49.81 40.85,49.81 41.29,52.03 41.85,52.81 42.63,53.37 43.63,53.70 44.85,53.81 44.85,60.21 42.63,60.65 41.85,61.21 41.29,61.99 40.96,62.99 40.85,64.21 34.45,64.21 34.00,61.99 33.45,61.21 32.67,60.65 31.67,60.32 30.44,60.20 30.45,53.80 32.67,53.36 33.45,52.81 34.00,52.03 34.34,51.03">
        <request index="0"  response="000000000000" foes="000100010000" cont="0"/>
        <request index="1"  response="000000000000" foes="111100110000" cont="0"/>
        <request index="2"  response="000111000000" foes="110111110000" cont="0"/>
        <request index="3"  response="000010000000" foes="100010000000" cont="0"/>
        <request index="4"  response="000110000111" foes="100110000111" cont="0"/>
        <request index="5"  response="111110000110" foes="111110000110" cont="0"/>
        <request index="6"  response="000000000000" foes="010000000100" cont="0"/>
        <request index="7"  response="000000000000" foes="110000111100" cont="0"/>
        <request index="8"  response="000000000011" foes="110000110111" cont="0"/>
        <request index="9"  response="000000000010" foes="000000100010" cont="0"/>
        <request index="10" response="000111000110" foes="000111100110" cont="0"/>
        <request index="11" response="000110011110" foes="000110111110" cont="0"/>
    </junction>
    <junction id="J1" type="dead_end" x="121.62" y="57.01" incLanes="E0_0" intLanes="" shape="121.62,57.01 121.62,60.21 121.62,57.01"/>
    <junction id="J5" type="dead_end" x="-43.34" y="56.95" incLanes="E3_0" intLanes="" shape="-43.34,56.95 -43.34,53.75 -43.34,56.95"/>
    <junction id="J6" type="dead_end" x="37.63" y="-14.84" incLanes="E4_0" intLanes="" shape="37.63,-14.84 40.83,-14.84 37.63,-14.84"/>
    <junction id="J7" type="dead_end" x="37.63" y="120.76" incLanes="E5_0" intLanes="" shape="37.63,120.76 34.43,120.76 37.63,120.76"/>

    <connection from="-E0" to="E4" fromLane="0" toLane="0" via=":J0_3_0" tl="J0" linkIndex="3" dir="l" state="o"/>
    <connection from="-E0" to="E3" fromLane="0" toLane="0" via=":J0_4_0" tl="J0" linkIndex="4" dir="s" state="o"/>
    <connection from="-E0" to="E5" fromLane="0" toLane="0" via=":J0_5_0" tl="J0" linkIndex="5" dir="r" state="o"/>
    <connection from="-E3" to="E5" fromLane="0" toLane="0" via=":J0_9_0" tl="J0" linkIndex="9" dir="l" state="o"/>
    <connection from="-E3" to="E0" fromLane="0" toLane="0" via=":J0_10_0" tl="J0" linkIndex="10" dir="s" state="o"/>
    <connection from="-E3" to="E4" fromLane="0" toLane="0" via=":J0_11_0" tl="J0" linkIndex="11" dir="r" state="o"/>
    <connection from="-E4" to="E3" fromLane="0" toLane="0" via=":J0_0_0" tl="J0" linkIndex="0" dir="l" state="O"/>
    <connection from="-E4" to="E5" fromLane="0" toLane="0" via=":J0_1_0" tl="J0" linkIndex="1" dir="s" state="O"/>
    <connection from="-E4" to="E0" fromLane="0" toLane="0" via=":J0_2_0" tl="J0" linkIndex="2" dir="r" state="o"/>
    <connection from="-E5" to="E0" fromLane="0" toLane="0" via=":J0_6_0" tl="J0" linkIndex="6" dir="l" state="O"/>
    <connection from="-E5" to="E4" fromLane="0" toLane="0" via=":J0_7_0" tl="J0" linkIndex="7" dir="s" state="O"/>
    <connection from="-E5" to="E3" fromLane="0" toLane="0" via=":J0_8_0" tl="J0" linkIndex="8" dir="r" state="o"/>

    <connection from=":J0_0" to="E3" fromLane="0" toLane="0" dir="l" state="M"/>
    <connection from=":J0_1" to="E5" fromLane="0" toLane="0" dir="s" state="M"/>
    <connection from=":J0_2" to="E0" fromLane="0" toLane="0" dir="r" state="M"/>
    <connection from=":J0_3" to="E4" fromLane="0" toLane="0" dir="l" state="M"/>
    <connection from=":J0_4" to="E3" fromLane="0" toLane="0" dir="s" state="M"/>
    <connection from=":J0_5" to="E5" fromLane="0" toLane="0" dir="r" state="M"/>
    <connection from=":J0_6" to="E0" fromLane="0" toLane="0" dir="l" state="M"/>
    <connection from=":J0_7" to="E4" fromLane="0" toLane="0" dir="s" state="M"/>
    <connection from=":J0_8" to="E3" fromLane="0" toLane="0" dir="r" state="M"/>
    <connection from=":J0_9" to="E5" fromLane="0" toLane="0" dir="l" state="M"/>
    <connection from=":J0_10" to="E0" fromLane="0" toLane="0" dir="s" state="M"/>
    <connection from=":J0_11" to="E4" fromLane="0" toLane="0" dir="r" state="M"/>

</net>
